XFLR5 is an analysis tool for airfoils, wings, and planes operating at low
Reynolds numbers. It includes:

1. XFoil's Direct and Inverse analysis capabilities
2. Wing design and analysis capabilities based on Lifting Line Theory, on the
   Vortex Lattice Method, and on a 3D Panel Method
